iidm/iidm-serde/src/test/resources/V1_14/referencePrioritiesRef.xiidm
<?xml version="1.0" encoding="UTF-8"?>
<iidm:network xmlns:iidm="http://www.powsybl.org/schema/iidm/1_14" xmlns:refpri="http://www.powsybl.org/schema/iidm/ext/reference_priorities/1_0" id="test" caseDate="2016-06-27T12:27:58.535+02:00" forecastDistance="0" sourceFormat="test" minimumValidationLevel="STEADY_STATE_HYPOTHESIS">
    <iidm:substation id="S" country="FR">
        <iidm:voltageLevel id="VL" nominalV="400.0" topologyKind="BUS_BREAKER">
            <iidm:busBreakerTopology>
                <iidm:bus id="B1"/>
                <iidm:bus id="B2"/>
            </iidm:busBreakerTopology>
            <iidm:generator id="G" energySource="OTHER" minP="0.0" maxP="200.0" voltageRegulatorOn="true" targetP="100.0" targetV="400.0" targetQ="100.0" bus="B1" connectableBus="B1">
                <iidm:minMaxReactiveLimits minQ="-1.7976931348623157E308" maxQ="1.7976931348623157E308"/>
            </iidm:generator>
        </iidm:voltageLevel>
    </iidm:substation>
    <iidm:line id="L12" r="0.0" x="1.0" g1="0.0" b1="0.0" g2="0.0" b2="0.0" voltageLevelId1="VL" bus1="B1" connectableBus1="B1" voltageLevelId2="VL" bus2="B2" connectableBus2="B2"/>
    <iidm:extension id="G">
        <refpri:referencePriorities>
            <refpri:referencePriority priority="1" id="G"/>
        </refpri:referencePriorities>
    </iidm:extension>
    <iidm:extension id="L12">
        <refpri:referencePriorities>
            <refpri:referencePriority priority="2" id="L12" side="ONE"/>
            <refpri:referencePriority priority="0" id="L12" side="TWO"/>
        </refpri:referencePriorities>
    </iidm:extension>
</iidm:network>
